launcher/output/tcopflowout/t4.m
function mpc = t4

%%-----  Power Flow Data  -----%%
%% system MVA base
mpc.baseMVA = 100;

%% OPF objective
mpc.obj = 0;

%% OPF convergence status
mpc.converged = 1;

%% bus data
%	bus_i	type	Pd	Qd	Gs	Bs	area	Vm	Va	baseKV	zone	Vmax	Vmin	mult_Pmis	mult_Qmis	Pslack	Qslack
mpc.bus = [
	1	1	0	0	0	0	1	0.972389356	-0.721978462	115	2	1.1	0.9	8.84412896e-09	-1.601726e-08	0	0;
	2	1	4.47568549	1.27184567	0	0	1	0.97231469	-0.730516067	115	2	1.1	0.9	1.27146811e-08	-1.4507294e-08	0	0;
	3	1	0	0	0	0	1	1.01207553	-3.976	115	4	1.1	0.9	-8.91259663e-08	-5.48926916e-07	0	0;
	4	1	1.05721857	0.298508772	0	0	1	1.01205981	-3.97785766	115	4	1.1	0.9	-8.83009727e-08	-5.4885431e-07	0	0;
	5	1	0	0	0	0	1	0.99330943	-2.66641263	115	6	1.1	0.9	-4.97310465e-08	-3.56076284e-07	0	0;
	6	1	4.63934198	1.31885697	0	0	1	0.993232693	-2.67487191	115	6	1.1	0.9	-4.58994908e-08	-3.54896044e-07	0	0;
	7	1	0	0	0	0	1	0.968315324	-1.20445717	115	2	1.1	0.9	1.47888198e-08	-1.78546845e-09	0	0;
	8	1	14.3779125	4.10018819	0	0	1	0.968085995	-1.23089309	115	2	1.1	0.9	2.73089151e-08	2.25413885e-09	0	0;
	9	1	0	0	0	0	1	0.969888702	-0.917629249	115	2	1.1	0.9	1.13763261e-08	-7.87843893e-09	0	0;
	10	1	25.8487492	7.36459209	0	0	1	0.969430823	-0.977490322	115	2	1.1	0.9	3.49867792e-08	-5.80231549e-10	0	0;
	11	1	0	0	0	0	1	1.0250272	-3.07760894	115	4	1.1	0.9	-8.33007279e-08	-5.79765643e-07	0	0;
	12	1	0.186567982	0.0559703947	0	0	1	1.0250243	-3.07795209	115	4	1.1	0.9	-8.32093542e-08	-5.80109059e-07	0	0;
	13	1	1.56717105	0.447763158	0	0	1	1.02500198	-3.08053959	115	4	1.1	0.9	-8.21090976e-08	-5.79801795e-07	0	0;
	14	1	0	0	0	0	1	1.01526796	-2.44649663	230	4	1.1	0.9	-6.53980212e-08	-4.52175094e-07	0	0;
	15	1	0	0	0	30	1	1.02263718	-2.9304171	115	4	1.1	0.9	-7.05102591e-08	-4.96484874e-07	0	0;
	16	1	27.835943	7.93535819	0	0	1	1.02223786	-2.97683278	115	4	1.1	0.9	-4.57673774e-08	-4.89714717e-07	0	0;
	17	1	0	0	0	0	1	0.98986754	-2.98756262	115	4	1.1	0.9	-3.43676345e-08	-2.34933586e-07	0	0;
	18	1	0.441544225	0.124378655	0	0	1	0.989860363	-2.9885397	115	4	1.1	0.9	-3.39813167e-08	-2.34659415e-07	0	0;
	19	1	0.478857822	0.13681652	0	0	1	0.989860798	-2.98838366	115	4	1.1	0.9	-3.39481063e-08	-2.34685611e-07	0	0;
	20	1	0.702739401	0.199005848	0	0	1	0.989856404	-2.98886221	115	4	1.1	0.9	-3.37585975e-08	-2.34622872e-07	0	0;
	21	1	2.866928	0.81468019	0	0	1	0.989817148	-2.99387271	115	4	1.1	0.9	-3.1972984e-08	-2.34087799e-07	0	0;
	22	1	0	0	0	0	1	1.02661198	-3.17889632	115	4	1.1	0.9	-9.37184983e-08	-6.45961619e-07	0	0;
	23	1	0.876869518	0.24875731	0	0	1	1.02659891	-3.18034896	115	4	1.1	0.9	-9.30861978e-08	-6.46140915e-07	0	0;
	24	1	1.49254386	0.422887427	0	0	1	1.02658936	-3.18122701	115	4	1.1	0.9	-9.25967961e-08	-6.45981736e-07	0	0;
	25	1	0	0	0	0	1	1.00177272	-2.94202232	115	6	1.1	0.9	-5.97448142e-08	-4.13724086e-07	0	0;
	26	1	0.78781279	0.227590361	0	0	1	1.00176094	-2.94332437	115	6	1.1	0.9	-5.91046605e-08	-4.13560634e-07	0	0;
	27	1	0	0	0	0	1	1.02742142	-3.2057513	115	4	1.1	0.9	-9.31620961e-08	-6.39001063e-07	0	0;
	28	1	1.44901133	0.416668494	0	0	1	1.02739706	-3.20873629	115	4	1.1	0.9	-9.20809016e-08	-6.39152041e-07	0	0;
	29	1	0	0	0	0	1	0.970826861	-0.533915257	115	2	1.1	0.9	8.70822499e-09	-2.03383786e-08	0	0;
	30	1	35.7873147	10.198991	0	0	1	0.970241151	-0.597767278	115	2	1.1	0.9	4.38649482e-08	-9.88128065e-09	0	0;
	31	1	0	0	0	0	1	0.976324098	-3.11483089	115	7	1.1	0.9	-2.05455287e-08	-1.48932662e-07	0	0;
	32	1	0.354571429	0.104285714	0	0	1	0.976317527	-3.11561687	115	7	1.1	0.9	-2.01781972e-08	-1.48424544e-07	0	0;
	33	1	4.47733333	1.2792381	0	0	1	0.976252186	-3.12421905	115	7	1.1	0.9	-1.67511893e-08	-1.4746863e-07	0	0;
	34	1	0	0	0	0	1	1.01680785	-3.64858695	115	4	1.1	0.9	-9.32941041e-08	-6.02105581e-07	0	0;
	35	1	12.9105044	3.68160819	0	0	1	1.01660168	-3.67370507	115	4	1.1	0.9	-8.27980151e-08	-5.99358952e-07	0	0;
	36	1	0	0	0	0	1	0.98436971	-3.10764848	115	7	1.1	0.9	-2.29401815e-08	-1.66713773e-07	0	0;
	37	1	2.482	0.709142857	0	0	1	0.984331812	-3.11230137	115	7	1.1	0.9	-2.08341669e-08	-1.65893571e-07	0	0;
	38	1	20.7250476	5.90952381	0	0	1	0.984017495	-3.14834802	115	7	1.1	0.9	-4.79129228e-09	-1.6129835e-07	0	0;
	39	1	4.60822917	1.31219481	0	0	1	1.00103732	-4.17802715	115	4	1.1	0.9	-7.09146327e-08	-4.11839315e-07	0	0;
	40	1	1.26866228	0.360698099	0	0	1	1.00101974	-4.1801739	115	4	1.1	0.9	-6.98787332e-08	-4.11557502e-07	0	0;
	41	1	23.1643899	6.60372408	0	0	1	1.02151695	-4.60665398	115	5	1.1	0.9	-8.35761897e-08	-4.58263327e-07	0	0;
	42	1	6.60450658	1.88433662	0	0	1	1.00452539	-3.96955449	115	4	1.1	0.9	-7.24306289e-08	-4.19120436e-07	0	0;
	43	1	1.26578926	0.35732807	0	0	1	0.971888635	-2.31049277	115	2	1.1	0.9	-9.79944298e-09	-9.44873336e-08	0	0;
	44	1	2.58085709	0.733834064	0	0	1	0.998528926	-3.40684654	115	4	1.1	0.9	-5.52842149e-08	-3.43853229e-07	0	0;
	45	1	0	0	0	0	1	0.990496714	-0.89157715	230	7	1.1	0.9	-2.91963405e-08	-2.57278662e-07	0	0;
	46	1	4.40780952	1.25838095	0	0	1	0.991985793	-1.40747528	115	7	1.1	0.9	-2.98016396e-08	-2.6772274e-07	0	0;
	47	1	0.957715643	0.273633041	0	0	1	1.02273443	-3.00550503	115	4	1.1	0.9	-8.77408287e-08	-6.27136102e-07	0	0;
	48	1	1.06208835	0.303453815	0	0	1	0.993239491	-2.84112692	115	6	1.1	0.9	-4.81154868e-08	-3.35671253e-07	0	0;
	49	2	0	0	0	0	1	0.997010024	-2.432571	13.8	6	1.1	0.9	-5.66304773e-08	-3.33094268e-07	0	0;
	50	2	0	0	0	0	1	0.996124818	-2.53088257	13.8	6	1.1	0.9	-5.79844784e-08	-3.33827048e-07	0	0;
	51	2	0	0	0	0	1	0.997512474	-2.36929711	13.8	6	1.1	0.9	-6.16606596e-08	-3.35694045e-07	0	0;
	52	2	0	0	0	0	1	0.995965784	-2.54999947	13.8	6	1.1	0.9	-6.3717256e-08	-3.36650476e-07	0	0;
	53	2	0	0	0	0	1	0.999544294	-1.94845346	13.8	6	1.1	0.9	-5.59370215e-08	-3.37517226e-07	0	0;
	54	1	1.65423611	0.472638889	0	0	1	1.02118239	-3.17561295	115	4	1.1	0.9	-8.93044579e-08	-6.20611395e-07	0	0;
	55	1	0	0	0	0	1	0.987509983	-0.928336945	230	7	1.1	0.9	-2.57092686e-08	-2.30951119e-07	0	0;
	56	1	0.910761905	0.257238095	0	0	1	0.987357972	-1.13433133	115	7	1.1	0.9	-2.53559958e-08	-2.20466353e-07	0	0;
	57	1	1.75373904	0.49751462	0	0	1	1.00840533	-4.1577931	115	4	1.1	0.9	-8.47331654e-08	-5.03308256e-07	0	0;
	58	1	2.94085714	0.841238095	0	0	1	0.99234622	-3.26266606	115	7	1.1	0.9	-2.94984126e-08	-2.00044953e-07	0	0;
	59	1	2.86468097	0.817615075	0	0	1	0.978476087	-2.36928362	115	2	1.1	0.9	-3.93327518e-09	-8.083226e-08	0	0;
	60	1	2.30143503	0.65409206	0	0	1	0.982045814	-0.410828676	115	2	1.1	0.9	-5.56862388e-09	-1.10359417e-07	0	0;
	61	1	14.2871429	4.07409524	0	0	1	0.988273082	-1.47423645	115	7	1.1	0.9	-2.75622407e-08	-2.4197856e-07	0	0;
	62	1	13.314735	3.79354898	0	0	1	1.0053144	-4.46083207	115	4	1.1	0.9	-8.31989061e-08	-4.6533355e-07	0	0;
	63	1	4.96270833	1.41169773	0	0	1	1.02539299	-3.54483763	115	4	1.1	0.9	-9.10664228e-08	-5.89708607e-07	0	0;
	64	1	0	0	0	0	1	0.994082387	-2.3009402	115	6	1.1	0.9	-5.05392744e-08	-3.84541681e-07	0	0;
	65	2	0	0	0	0	1	0.976587564	-0.491727021	13.8	6	1.1	0.9	-3.31055619e-08	-3.8419182e-07	0	0;
	66	1	0	0	0	0	1	1.02417443	-2.80255864	115	4	1.1	0.9	-8.49181335e-08	-6.28921547e-07	0	0;
	67	2	0	0	0	0	1	1.02520841	-2.69721109	13.8	4	1.1	0.9	-9.79636161e-08	-6.48987589e-07	0	0;
	68	2	0	0	0	0	1	1.02242891	-1.5843754	13.8	4	1.1	0.9	-7.17076446e-08	-6.56533955e-07	0	0;
	69	2	0	0	0	0	1	1.02381493	-2.36580072	13.8	4	1.1	0.9	-9.01365461e-08	-6.3840622e-07	0	0;
	70	2	0	0	0	0	1	1.02308544	-1.88564836	13.8	4	1.1	0.9	-7.95721856e-08	-6.49767032e-07	0	0;
	71	2	0	0	0	0	1	1.02385255	-2.42775427	13.8	4	1.1	0.9	-9.25271406e-08	-6.36789823e-07	0	0;
	72	2	0	0	0	0	1	1.02390809	-2.45957836	13.8	4	1.1	0.9	-9.32351232e-08	-6.3602092e-07	0	0;
	73	2	0	0	0	0	1	1.02357753	-2.12904589	13.8	4	1.1	0.9	-8.76702008e-08	-6.43888933e-07	0	0;
	74	1	10.94768	3.12207291	0	0	1	0.990422121	-3.2662882	115	6	1.1	0.9	-4.81902541e-08	-3.15318144e-07	0	0;
	75	1	2.18030687	0.62381002	0	0	1	0.977885918	0.239738125	115	2	1.1	0.9	8.85489998e-09	1.76082702e-08	0	0;
	76	2	0	0	0	0	1	0.984849125	0.780902067	13.8	2	1.1	0.9	-6.53790276e-09	5.75906228e-08	0	0;
	77	2	0	0	0	0	1	0.989010855	1.15196624	13.8	2	1.1	0.9	-1.00845067e-07	4.7131623e-08	0	0;
	78	1	0	0	0	0	1	0.977885918	0.239738125	13.8	2	1.1	0.9	9.71250488e-09	3.58169166e-08	0	0;
	79	1	0	0	0	0	1	0.977885918	0.239738125	13.8	2	1.1	0.9	9.9269061e-09	4.54898648e-08	0	0;
	80	1	0.894191366	0.253757009	0	0	1	1.0195274	-4.20609059	115	5	1.1	0.9	-7.58679986e-08	-4.22787259e-07	0	0;
	81	1	0	0	0	0	1	0.996314918	-1.94517565	230	6	1.1	0.9	-3.94209831e-08	-2.78590322e-07	0	0;
	82	1	4.43509422	1.26633611	0	0	1	0.994376135	-2.37080194	115	6	1.1	0.9	-3.93105619e-08	-2.60661967e-07	0	0;
	83	1	2.18304762	0.618761905	0	0	1	0.983349357	-2.07892029	115	7	1.1	0.9	-1.80533895e-08	-1.49419753e-07	0	0;
	84	1	2.27115299	0.648035652	0	0	1	0.97327163	-2.48772969	115	2	1.1	0.9	-1.64715387e-08	-1.24686471e-07	0	0;
	85	1	3.00374452	0.858212719	0	0	1	0.99723858	-3.87111743	115	4	1.1	0.9	-5.88042792e-08	-3.52628942e-07	0	0;
	86	1	4.99653657	1.42325587	0	0	1	0.968984314	-1.06913183	115	2	1.1	0.9	1.28645924e-08	-4.36363305e-09	0	0;
	87	1	0	0	0	0	1	1.0120575	-2.9500701	230	3	1.1	0.9	-7.5050854e-08	-4.88666746e-07	0	0;
	88	1	29.6540683	8.45026753	0	0	1	1.01267296	-3.70087544	115	3	1.1	0.9	-8.42731177e-08	-4.89467974e-07	0	0;
	89	1	43.6957143	12.4517143	0	0	1	0.999981051	-3.58505148	115	7	1.1	0.9	-4.81562943e-08	-2.98790028e-07	0	0;
	90	2	0	0	0	0	1	1.0121878	-2.36390852	13.8	7	1.1	0.9	-1.45952846e-07	-4.67317241e-07	0	0;
	91	2	0	0	0	0	1	1.0044539	-3.16587287	13.8	7	1.1	0.9	-5.6386429e-08	-3.12487308e-07	0	0;
	92	1	0	0	0	0	1	0.999981051	-3.58505148	13.8	7	1.1	0.9	-4.81547315e-08	-2.98761069e-07	0	0;
	93	1	1.90299342	0.541047149	0	0	1	1.02727029	-3.31843877	115	4	1.1	0.9	-8.93651639e-08	-5.99619286e-07	0	0;
	94	2	0	0	0	0	1	1.02818269	-2.4974181	13.8	4	1.1	0.9	-8.48209551e-08	-6.3487728e-07	0	0;
	95	1	2.08571429	0.590952381	0	30	1	1.00546872	-3.55141834	115	7	1.1	0.9	-4.03066217e-08	-2.55866594e-07	0	0;
	96	1	2.05790476	0.584	0	0	1	1.0027684	-2.62554614	115	7	1.1	0.9	-4.98249994e-08	-3.39492969e-07	0	0;
	97	1	4.43934704	1.26578926	0	0	1	0.986088476	-1.56595457	115	2	1.1	0.9	-1.82062979e-08	-1.7764605e-07	0	0;
	98	1	0	0	0	0	1	0.974964024	0.51245433	230	2	1.1	0.9	2.54456494e-09	-2.43030077e-08	0	0;
	99	1	7.37064849	2.10157356	0	0	1	0.972870449	-0.128239211	115	2	1.1	0.9	6.81582244e-09	-1.44044423e-08	0	0;
	100	1	22.5904157	6.44059457	0	80	1	1.02988619	-4.4938631	115	5	1.1	0.9	-8.26917315e-08	-4.54625654e-07	0	0;
	101	1	0.314933214	0.0908461195	0	0	1	0.969688677	-1.03231254	115	2	1.1	0.9	1.1807475e-08	-8.4999523e-09	0	0;
	102	1	0	0	0	0	1	0.98638091	-0.714128005	230	7	1.1	0.9	-2.52113208e-08	-2.27733362e-07	0	0;
	103	1	0	0	0	0	1	0.987281797	-1.16771975	115	7	1.1	0.9	-2.5008556e-08	-2.1957932e-07	0	0;
	104	2	0	0	0	0	1	0.980317717	0.674834348	13.8	7	1.1	0.9	-2.8116146e-08	-2.19272045e-07	0	0;
	105	2	0	0	0	0	1	0.973948736	1.25999153	13.8	7	1.1	0.9	-1.68990103e-08	-2.24012392e-07	0	0;
	106	1	1.43219048	0.410190476	0	0	1	0.985484595	-1.31595457	115	7	1.1	0.9	-2.00481295e-08	-1.86447205e-07	0	0;
	107	1	36.5417143	10.4146667	0	0	1	0.971130939	-3.16081153	115	7	1.1	0.9	-2.25414928e-08	-1.60892689e-07	0	0;
	108	1	5.7051363	1.62311733	0	0	1	0.976771798	-0.135300623	115	2	1.1	0.9	1.08937473e-08	1.6640277e-08	0	0;
	109	1	3.2089693	0.914183114	0	0	1	0.986174004	-2.28552418	115	4	1.1	0.9	-2.36064799e-08	-1.82640825e-07	0	0;
	110	1	6.57725905	1.87143006	0	0	1	0.969732024	-1.01048934	115	2	1.1	0.9	1.18640052e-08	-7.52041975e-09	0	0;
	111	1	5.3288972	1.51650022	0	0	1	1.01812434	-4.66728467	115	5	1.1	0.9	-8.37377299e-08	-4.55567656e-07	0	0;
	112	1	0	0	0	0	1	0.982374142	-0.889333232	230	7	1.1	0.9	-2.164611e-08	-2.00701143e-07	0	0;
	113	1	0	0	0	0	1	0.974595986	-2.58143398	115	7	1.1	0.9	-2.33275519e-08	-1.56966293e-07	0	0;
	114	2	0	0	0	0	1	0.983043481	-0.712008076	13.8	7	1.1	0.9	-3.06827317e-08	-1.69238707e-07	0	0;
	115	2	0	0	0	0	1	0.974241945	0.906882689	13.8	7	1.1	0.9	-1.98558804e-08	-1.93876309e-07	0	0;
	116	1	0	0	0	0	1	0.973991054	0.422379477	230	2	1.1	0.9	1.12230475e-10	-4.2120504e-08	0	0;
	117	1	20.6402383	5.88077213	0	0	1	0.972008958	-0.830844667	115	2	1.1	0.9	4.43138702e-09	-3.39934348e-08	0	0;
	118	1	2.38622474	0.678317692	0	0	1	0.973894639	-0.412736788	115	2	1.1	0.9	7.59681811e-09	-1.7680413e-08	0	0;
	119	1	10.628996	3.02820398	0	0	1	0.974718868	-2.03446746	115	2	1.1	0.9	1.96253363e-09	-5.11401803e-08	0	0;
	120	1	1.11940789	0.31716557	0	0	1	0.99433998	-3.52461441	115	4	1.1	0.9	-4.83488201e-08	-3.03117858e-07	0	0;
	121	1	0	0	0	0	1	1.00090139	-1.22073523	230	7	1.1	0.9	-3.75971437e-08	-3.41239489e-07	0	0;
	122	1	10.7344762	3.05904762	0	0	1	0.998089884	-1.85449251	115	7	1.1	0.9	-4.04348338e-08	-3.15909427e-07	0	0;
	123	1	0	0	0	0	1	0.977833011	1.20724174	230	2	1.1	0.9	-1.39424631e-10	-3.8334077e-08	0	0;
	124	1	0	0	0	0	1	0.974578774	-0.00915940996	115	2	1.1	0.9	4.53221033e-09	-2.26652479e-08	0	0;
	125	2	0	0	0	0	1	0.990274695	3.59314508	13.8	2	1.1	0.9	-8.86996024e-09	-3.63244198e-08	0	0;
	126	2	0	0	0	0	1	0.985312689	2.73040653	13.8	2	1.1	0.9	-1.01102051e-08	-3.67583279e-08	0	0;
	127	2	0	0	0	0	1	0.981485372	1.9393357	13.8	2	1.1	0.9	-1.11377322e-08	-3.85848783e-08	0	0;
	128	1	0	0	0	0	1	0.982948503	-0.892259578	230	7	1.1	0.9	-2.23381289e-08	-2.00366329e-07	0	0;
	129	1	53.7001905	15.3021905	0	0	1	0.973360057	-2.78954369	115	7	1.1	0.9	-2.48250866e-08	-1.76444684e-07	0	0;
	130	1	3.05904762	0.869047619	0	0	1	0.98379311	-1.40522244	115	7	1.1	0.9	-1.57482755e-08	-1.59893157e-07	0	0;
	131	1	18.3206341	5.22062367	0	0	1	0.970046098	-0.914161308	115	2	1.1	0.9	1.14454242e-08	-8.78668266e-09	0	0;
	132	1	16.3280759	4.65132132	0	0	1	0.969505073	-1.98603585	115	2	1.1	0.9	-1.31410863e-09	-5.99244321e-08	0	0;
	133	1	0	0	0	0	1	0.977330617	1.40825236	230	2	1.1	0.9	-2.80576096e-09	-5.1682116e-08	0	0;
	134	1	0	0	0	0	1	0.978834635	0.595817484	115	2	1.1	0.9	3.53793721e-10	-6.08464106e-08	0	0;
	135	2	0	0	0	0	1	0.970877404	4.12370149	13.8	2	1.1	0.9	-1.61506489e-09	-4.73318606e-08	0	0;
	136	2	0	0	0	0	1	0.972159573	3.63250883	13.8	2	1.1	0.9	-2.43257267e-09	-4.82062931e-08	0	0;
	137	1	0.721396199	0.205224781	0	0	1	1.01434877	-3.83431638	115	4	1.1	0.9	-9.15588088e-08	-5.74861234e-07	0	0;
	138	1	1.21965091	0.350139018	0	0	1	0.9910637	-2.59471083	115	6	1.1	0.9	-2.99054385e-08	-2.1613696e-07	0	0;
	139	1	4.14258305	1.18099955	0	0	1	0.981753993	-2.54686888	115	2	1.1	0.9	-1.01678504e-08	-1.12248656e-07	0	0;
	140	1	4.97231094	1.41719946	0	0	1	0.973888774	-0.131799721	115	2	1.1	0.9	5.4187893e-09	-3.43322093e-08	0	0;
	141	1	0.860009931	0.248312727	0	0	1	0.969728729	-1.00262181	115	2	1.1	0.9	1.23697499e-08	-6.62195633e-09	0	0;
	142	1	22.5661761	6.43190526	0	0	1	0.968623713	-0.995625606	115	2	1.1	0.9	1.21825489e-08	-4.51836928e-09	0	0;
	143	1	16.1800303	4.609919	0	0	1	1.00665791	-3.82628036	115	5	1.1	0.9	-6.65195652e-08	-3.78559928e-07	0	0;
	144	1	5.48104921	1.56255325	0	0	1	0.977679788	-1.40530049	115	2	1.1	0.9	-3.37772291e-09	-8.33314199e-08	0	0;
	145	1	10.5417989	3.0050738	0	0	1	1.01012819	-4.13677816	115	3	1.1	0.9	-9.03872997e-08	-4.95795884e-07	0	0;
	146	1	0	0	0	0	1	0.982825883	-1.81670946	115	7	1.1	0.9	-1.86764185e-08	-1.48811193e-07	0	0;
	147	2	0	0	0	0	1	0.978061894	0.249070498	13.8	7	1.1	0.9	-2.614035e-08	-1.37640989e-07	0	0;
	148	1	19.3926183	5.52950047	0	0	1	0.96661545	-1.4577535	115	2	1.1	0.9	1.61030492e-08	1.34199138e-09	0	0;
	149	1	0	0	0	0	1	1.012284	-2.69283221	230	3	1.1	0.9	-7.28335825e-08	-4.87584234e-07	0	0;
	150	1	0	0	0	0	1	1.01417465	-3.39886723	115	3	1.1	0.9	-8.16715376e-08	-4.87891315e-07	0	0;
	151	2	0	0	0	0	1	1.01640511	-2.13633381	13.8	3	1.1	0.9	-9.86838211e-08	-5.40572315e-07	0	0;
	152	2	0	0	0	0	1	1.0045074	-0.834936287	13.8	3	1.1	0.9	-6.18825797e-08	-4.93643414e-07	0	0;
	153	2	0	0	0	0	1	1.00240312	-0.259727209	13.8	3	1.1	0.9	-5.20543888e-08	-4.95868902e-07	0	0;
	154	2	0	0	0	0	1	1.00692561	-1.3442665	13.8	3	1.1	0.9	-7.06693066e-08	-4.9143665e-07	0	0;
	155	2	0	0	0	0	1	1.0071151	-1.3849655	13.8	3	1.1	0.9	-7.13702299e-08	-4.91232609e-07	0	0;
	156	1	0	0	0	0	1	0.977611552	1.22447969	230	2	1.1	0.9	-4.41161874e-10	-4.00928408e-08	0	0;
	157	1	8.93925816	2.54974775	0	0	1	0.977492347	0.730284286	115	2	1.1	0.9	1.32909249e-09	-1.70542495e-08	0	0;
	158	1	5.57838268	1.59204678	0	0	1	1.02523553	-3.02984428	115	4	1.1	0.9	-8.74622447e-08	-6.22691446e-07	0	0;
	159	1	0.864431652	0.24875731	0	0	1	1.00506849	-4.26681308	115	4	1.1	0.9	-7.95385926e-08	-4.60453844e-07	0	0;
	160	1	0	0	0	0	1	1.00807226	-4.24725594	115	4	1.1	0.9	-8.17808557e-08	-4.67139297e-07	0	0;
	161	1	0	0	0	0	1	1.00807226	-4.24725594	13.8	4	1.1	0.9	-8.1828152e-08	-4.69871184e-07	0	0;
	162	1	0.878179155	0.248312727	0	0	1	0.976171765	-1.24550942	115	2	1.1	0.9	-7.08090019e-10	-6.39754979e-08	0	0;
	163	1	27.6715977	7.88459279	0	0	1	1.01869637	-4.56590265	115	5	1.1	0.9	-8.22331653e-08	-4.54063038e-07	0	0;
	164	1	0	0	0	0	1	1.01869637	-4.56590265	13.8	5	1.1	0.9	-8.28920657e-08	-4.63136065e-07	0	0;
	165	1	0	0	0	0	1	1.01869637	-4.56590265	13.8	5	1.1	0.9	-8.28272756e-08	-4.78281621e-07	0	0;
	166	1	0	0	0	0	1	1.01869637	-4.56590265	13.8	5	1.1	0.9	-8.3547273e-08	-4.84737994e-07	0	0;
	167	2	0	0	0	0	1	1.02090079	-4.26640169	13.8	5	1.1	0.9	-9.17466449e-08	-4.74855658e-07	0	0;
	168	1	0	0	0	0	1	1.01869637	-4.56590265	13.8	5	1.1	0.9	-8.36782984e-08	-4.93481691e-07	0	0;
	169	1	0	0	0	0	1	1.01869637	-4.56590265	13.8	5	1.1	0.9	-8.3547273e-08	-4.85889444e-07	0	0;
	170	2	0	0	0	0	1	1.02266327	-3.99320139	13.8	5	1.1	0.9	-9.30658929e-08	-4.94218398e-07	0	0;
	171	1	4.63350633	1.31885697	0	0	1	0.990880571	-3.09967861	115	6	1.1	0.9	-4.21135008e-08	-2.72922395e-07	0	0;
	172	1	3.25050645	0.924400534	0	0	1	1.01542657	-4.11678489	115	5	1.1	0.9	-8.0544237e-08	-4.65072505e-07	0	0;
	173	1	5.26243703	1.49837472	0	0	1	1.01844848	-4.54321177	115	5	1.1	0.9	-8.27419394e-08	-4.45928505e-07	0	0;
	174	1	1.67358789	0.477304851	0	0	1	1.02000139	-4.02373057	115	5	1.1	0.9	-7.44244068e-08	-4.23713702e-07	0	0;
	175	1	4.41658033	1.25670138	0	0	1	1.01803432	-4.67226562	115	5	1.1	0.9	-8.43323869e-08	-4.53178188e-07	0	0;
	176	1	11.4252906	3.2575	0	0	1	1.01116796	-3.93723772	115	3	1.1	0.9	-8.63561086e-08	-4.9235781e-07	0	0;
	177	1	7.8492381	2.23866667	0	0	1	0.982095782	-2.85091245	115	7	1.1	0.9	-2.21711991e-08	-1.60698679e-07	0	0;
	178	1	0	0	0	0	1	1.00667458	-2.66525836	230	5	1.1	0.9	-5.83955675e-08	-3.53578541e-07	0	0;
	179	1	14.264769	4.06615398	0	0	1	1.01747626	-3.90769919	115	5	1.1	0.9	-7.02086969e-08	-4.18518864e-07	0	0;
	180	1	4.67637917	1.33524522	0	0	1	1.0177402	-4.21166518	115	5	1.1	0.9	-8.2098972e-08	-4.70073408e-07	0	0;
	181	1	29.8384393	8.50128107	0	0	1	1.0094052	-4.12831615	115	4	1.1	0.9	-8.12827019e-08	-4.66335648e-07	0	0;
	182	2	0	0	0	0	1	1.01171937	-3.25517628	13.8	4	1.1	0.9	-7.95263983e-08	-4.80951468e-07	0	0;
	183	2	0	0	0	0	1	1.00977416	-3.61589409	13.8	4	1.1	0.9	-8.92176646e-08	-4.71089978e-07	0	0;
	184	1	6.45872007	1.84275923	0	0	1	1.0274301	-4.26115985	115	5	1.1	0.9	-9.04418371e-08	-5.19996555e-07	0	0;
	185	1	6.48494926	1.84511531	0	0	1	1.01136459	-3.95232498	115	3	1.1	0.9	-8.90292939e-08	-4.94985398e-07	0	0;
	186	1	1.27184567	0.363384478	0	0	1	0.983312584	-1.54929875	115	2	1.1	0.9	-1.57208642e-08	-1.39360143e-07	0	0;
	187	1	0	0	0	0	1	0.997814081	-0.777036251	230	7	1.1	0.9	-3.55728818e-08	-3.22658133e-07	0	0;
	188	1	0	0	0	0	1	1.0036993	-2.43847331	115	7	1.1	0.9	-4.83363197e-08	-3.32806424e-07	0	0;
	189	3	0	0	0	0	1	0.995070421	-1.99131181e-23	13.8	7	1.1	0.9	-2.96340889e-08	-3.24000443e-07	0	0;
	190	1	9.79805684	2.78944084	0	0	1	0.989614672	-3.36555576	115	6	1.1	0.9	-4.61954796e-08	-2.94186751e-07	0	0;
	191	1	4.36824566	1.24461771	0	0	1	1.02388791	-3.90908447	115	5	1.1	0.9	-9.12311484e-08	-5.52846e-07	0	0;
	192	1	36.6668571	10.4494286	0	0	1	0.971547721	-3.20682818	115	7	1.1	0.9	-2.14580093e-08	-1.55569579e-07	0	0;
	193	1	13.3180411	3.79736779	0	0	1	0.970401716	-0.886359275	115	2	1.1	0.9	1.07140738e-08	-9.30273041e-09	0	0;
	194	1	22.5801245	6.43686808	0	50	1	1.01588819	-3.84983536	115	3	1.1	0.9	-8.31561496e-08	-4.85537573e-07	0	0;
	195	1	0	0	0	0	1	0.993074881	-2.562553	115	6	1.1	0.9	-3.6435522e-08	-2.49896936e-07	0	0;
	196	1	0	0	0	0	1	0.993074881	-2.562553	13.8	6	1.1	0.9	-3.63512181e-08	-2.48120992e-07	0	0;
	197	1	0	0	0	0	1	0.993074881	-2.562553	13.8	6	1.1	0.9	-3.63512181e-08	-2.44232776e-07	0	0;
	198	1	3.25229108	0.926630419	0	0	1	0.974978864	-0.427230126	115	2	1.1	0.9	9.47501947e-09	-2.61890495e-09	0	0;
	199	1	2.48598703	0.706113686	0	0	1	1.01059438	-3.67395495	115	6	1.1	0.9	-7.19631131e-08	-4.46124398e-07	0	0;
	200	1	5.80848319	1.65423611	0	0	1	0.991165761	-2.57128739	115	4	1.1	0.9	-3.47840415e-08	-2.53187385e-07	0	0;
];

%% generator data
%	bus	Pg	Qg	Qmax	Qmin	Vg	mBase	status	Pmax	Pmin	Pc1	Pc2	Qc1min	Qc1max	Qc2min	Qc2max	ramp_agc	ramp_10	ramp_30	ramp_q	apf	pgs
mpc.gen = [
	49	1.35999911	0.641931155	2.11	-0.55	0.997010024	5.44	1	4.53	1.36	0	0	0	0	0	0	3	30	90	0	0.00151126442	1.36;
	50	1.35999911	0.64163392	2.11	-0.55	0.996124818	5.44	1	4.53	1.36	0	0	0	0	0	0	3	30	90	0	0.00151126442	1.36;
	51	1.35999911	0.640876777	2.11	-0.55	0.997512474	5.44	1	4.53	1.36	0	0	0	0	0	0	3	30	90	0	0.00151126442	1.36;
	52	1.35999911	0.640489026	2.11	-0.55	0.995965784	5.44	1	4.53	1.36	0	0	0	0	0	0	3	30	90	0	0.00151126442	1.36;
	53	2.71999911	1.01387922	4.23	-1.11	0.999544294	10.88	1	9.07	2.72	0	0	0	0	0	0	3	30	90	0	0.00302586497	2.72;
	65	29.9653591	-16.7222925	32.04	-21.66	0.976587564	180.48	1	86.5	0	0	0	0	0	0	0	45	450	1350	0	0.0288574774	86.5;
	67	1.40999911	0.529340397	2.19	-0.57	1.02520841	5.64	1	4.7	1.41	0	0	0	0	0	0	3	30	90	0	0.00156797854	1.41;
	68	8.37999911	-0.802039964	13.01	-3.41	1.02242891	33.5	1	27.92	8.38	0	0	0	0	0	0	3	30	90	0	0.00931445976	8.38;
	69	8.37999911	-0.744444968	13.01	-3.41	1.02381493	33.5	1	27.92	8.38	0	0	0	0	0	0	3	30	90	0	0.00931445976	8.38;
	70	8.37999911	-0.780821498	13.01	-3.41	1.02308544	33.5	1	27.92	8.38	0	0	0	0	0	0	3	30	90	0	0.00931445976	8.38;
	71	8.37999911	-0.739190967	13.01	-3.41	1.02385255	33.5	1	27.92	8.38	0	0	0	0	0	0	3	30	90	0	0.00931445976	8.38;
	72	8.37999911	-0.736684735	13.01	-3.41	1.02390809	33.5	1	27.92	8.38	0	0	0	0	0	0	3	30	90	0	0.00931445976	8.38;
	73	8.37999911	-0.762119764	13.01	-3.41	1.02357753	33.5	1	27.92	8.38	0	0	0	0	0	0	3	30	90	0	0.00931445976	8.38;
	76	1.19999909	0.82097015	2.04	-0.44	0.984849125	4.8	1	4	1.2	0	0	0	0	0	0	35	350	1050	0	0.00133444982	1.2;
	77	0.719999091	0.481196206	1.22	-0.27	0.989010855	2.88	1	2.4	0.72	0	0	0	0	0	0	35	350	1050	0	0.000800669894	0.72;
	78	0	0	9.16	-2	0.977885918	21.6	0	18	5.4	0	0	0	0	0	0	35	350	1050	0	0	11.7;
	79	0	0	9.16	-2	0.977885918	21.6	0	18	5.4	0	0	0	0	0	0	35	350	1050	0	0	11.7;
	90	0.959999091	0.526703801	1.63	-0.36	1.0121878	3.84	1	3.2	0.96	0	0	0	0	0	0	35	350	1050	0	0.00106755986	0.96;
	91	1.49999909	0.82444269	2.55	-0.55	1.0044539	6	1	5	1.5	0	0	0	0	0	0	35	350	1050	0	0.00166806228	1.5;
	92	0	0	3.21	-0.7	0.999981051	7.56	0	6.3	1.89	0	0	0	0	0	0	35	350	1050	0	0	4.095;
	94	5.39999911	0.167439017	8.39	-2.2	1.02818269	21.6	1	18	5.4	0	0	0	0	0	0	3	30	90	0	0.0060050242	5.4;
	104	26.541716	-7.0851134	21.09	-14.26	0.980317717	118.8	1	67.6	0	0	0	0	0	0	0	45	450	1350	0	0.022552202	67.6;
	105	55.3637727	-20.3220397	42.17	-28.51	0.973948736	237.6	1	154.8	0	0	0	0	0	0	0	45	450	1350	0	0.0516432082	154.8;
	114	0.696438642	0.0563924517	0.36	-0.24	0.983043481	2.04	1	1.4	0	0	0	0	0	0	0	45	450	1350	0	0.000467057438	1.4;
	115	47.529507	-12.8416506	31.95	-21.6	0.974241945	180	1	133.5	0	0	0	0	0	0	0	45	450	1350	0	0.0445372628	133.5;
	125	39.0199991	10.9141229	60.6	-15.87	0.990274695	156.06	1	130.05	39.02	0	0	0	0	0	0	3	30	90	0	0.0433862999	39.02;
	126	39.0199991	10.8001733	60.6	-15.87	0.985312689	156.06	1	130.05	39.02	0	0	0	0	0	0	3	30	90	0	0.0433862999	39.02;
	127	39.0199991	10.3274793	60.6	-15.87	0.981485372	156.06	1	130.05	39.02	0	0	0	0	0	0	3	30	90	0	0.0433862999	39.02;
	135	133.919999	-17.2346791	208.02	-54.46	0.970877404	535.68	1	446.4	133.92	0	0	0	0	0	0	3	30	90	0	0.1489246	133.92;
	136	133.919999	-17.7854695	208.02	-54.46	0.972159573	535.68	1	446.4	133.92	0	0	0	0	0	0	3	30	90	0	0.1489246	133.92;
	147	33.9167695	-4.79586588	21.41	-14.47	0.978061894	120.6	1	92.4	0	0	0	0	0	0	0	45	450	1350	0	0.0308257909	92.4;
	151	1.61999911	0.61868365	2.52	-0.66	1.01640511	6.48	1	5.4	1.62	0	0	0	0	0	0	3	30	90	0	0.00180150726	1.62;
	152	23.1699991	-5.54322836	35.99	-9.42	1.0045074	92.67	1	77.22	23.17	0	0	0	0	0	0	3	30	90	0	0.0257615538	23.17;
	153	23.1699991	-5.55887495	35.99	-9.42	1.00240312	92.67	1	77.22	23.17	0	0	0	0	0	0	3	30	90	0	0.0257615538	23.17;
	154	23.1699991	-5.52758889	35.99	-9.42	1.00692561	92.67	1	77.22	23.17	0	0	0	0	0	0	3	30	90	0	0.0257615538	23.17;
	155	23.1699991	-5.52613653	35.99	-9.42	1.0071151	92.67	1	77.22	23.17	0	0	0	0	0	0	3	30	90	0	0.0257615538	23.17;
	161	0	0	70.55	-15.38	1.00807226	166.32	0	138.6	41.58	0	0	0	0	0	0	35	350	1050	0	0	90.09;
	164	0	0	6.11	-1.33	1.01869637	14.4	0	12	3.6	0	0	0	0	0	0	35	350	1050	0	0	7.8;
	165	0	0	13.23	-2.89	1.01869637	31.2	0	26	7.8	0	0	0	0	0	0	35	350	1050	0	0	16.9;
	166	0	0	4.78	-1.04	1.01869637	11.28	0	9.4	2.82	0	0	0	0	0	0	35	350	1050	0	0	6.11;
	167	2.81999909	1.00218413	4.78	-1.04	1.02090079	11.28	1	9.4	2.82	0	0	0	0	0	0	35	350	1050	0	0.00313595708	2.82;
	168	0	0	4.78	-1.04	1.01869637	11.28	0	9.4	2.82	0	0	0	0	0	0	35	350	1050	0	0	6.11;
	169	0	0	4.78	-1.04	1.01869637	11.28	0	9.4	2.82	0	0	0	0	0	0	35	350	1050	0	0	6.11;
	170	2.81999909	0.972857635	4.78	-1.04	1.02266327	11.28	1	9.4	2.82	0	0	0	0	0	0	35	350	1050	0	0.00313595708	2.82;
	182	5.24999911	0.632381592	8.16	-2.14	1.01171937	21	1	17.5	5.25	0	0	0	0	0	0	3	30	90	0	0.00583821798	5.25;
	183	7.97999911	0.0385923094	12.4	-3.25	1.00977416	31.92	1	26.6	7.98	0	0	0	0	0	0	3	30	90	0	0.00887409132	7.98;
	189	170.749999	-40.3209025	209.45	-46.67	0.995070421	682.98	1	569.15	170.75	0	0	0	0	0	0	20	200	600	0	0.189875529	384.37;
	196	0	0	34.36	-7.49	0.993074881	81	0	67.5	20.25	0	0	0	0	0	0	35	350	1050	0	0	43.875;
	197	0	0	34.36	-7.49	0.993074881	81	0	67.5	20.25	0	0	0	0	0	0	35	350	1050	0	0	43.875;
];

%% branch data
%	fbus	tbus	r	x	b	rateA	rateB	rateC	ratio	angle	status	angmin	angmax	Pf	Qf	Pt	Qt
mpc.branch = [
	1	2	0.000673	0.003339	0	100	0	0	1	0	1	0	0	4.4758	1.2726	-4.4757	-1.2718;
	1	119	0.018542	0.119758	0.02285	221.1	0	0	1	0	1	0	0	17.4490	-5.4657	-17.3855	3.7100;
	1	124	0.005615	0.036268	0.00692	221.1	0	0	1	0	1	0	0	-32.6032	-0.9474	32.6663	0.6995;
	1	193	0.004258	0.027501	0.00525	221.1	0	0	1	0	1	0	0	10.6783	5.1405	-10.6719	-5.5943;
	3	4	0.000573	0.003303	0	100	0	0	1	0	1	0	0	1.0572	0.2985	-1.0572	-0.2985;
	3	57	0.008505	0.058098	0.00988	221.1	0	0	1	0	1	0	0	6.3743	4.9632	-6.3685	-5.9316;
	3	137	0.005889	0.038035	0.00726	221.1	0	0	1	0	1	0	0	-7.4315	-5.2618	7.4361	4.5459;
	5	6	0.000694	0.003337	0	100	0	0	1	0	1	0	0	4.6395	1.3196	-4.6393	-1.3189;
	5	48	0.006246	0.043513	0.00711	221.1	0	0	1	0	1	0	0	6.7983	-1.1564	-6.7953	0.4756;
	5	64	0.007877	0.054875	0.00897	221.1	0	0	1	0	1	0	0	-11.4378	-0.1632	11.4482	-0.6497;
	7	8	0.000634	0.003189	0	100	0	0	1	0	1	0	0	14.3794	4.1078	-14.3779	-4.1002;
	7	86	0.003756	0.024259	0.00463	221.1	0	0	1	0	1	0	0	-9.3234	-1.4331	9.3270	1.0215;
	7	101	0.003597	0.023232	0.00443	221.1	0	0	1	0	1	0	0	-12.7217	-3.9439	12.7284	3.5715;
	7	148	0.008667	0.05598	0.01068	221.1	0	0	1	0	1	0	0	7.6657	1.2692	-7.6600	-2.2319;
	9	10	0.000585	0.003967	0	100	0	0	1	0	1	0	0	25.8532	7.3951	-25.8487	-7.3646;
	9	124	0.008069	0.055123	0.00938	221.1	0	0	1	0	1	0	0	-27.7693	-4.4129	27.8368	3.9874;
	9	131	0.004139	0.026732	0.0051	221.1	0	0	1	0	1	0	0	-0.2944	-0.7653	0.2944	0.2856;
	9	141	0.004446	0.03097	0.00506	221.1	0	0	1	0	1	0	0	4.4849	-0.3775	-4.4840	-0.0918;
	9	193	0.003695	0.025244	0.00429	221.1	0	0	1	0	1	0	0	-2.2745	-1.8393	2.2748	1.4377;
	11	12	0.000534	0.003533	0	100	0	0	1	0	1	0	0	0.1866	0.0560	-0.1866	-0.0560;
	11	13	0.000619	0.003606	0	100	0	0	1	0	1	0	0	1.5672	0.4479	-1.5672	-0.4478;
	11	15	0.010408	0.06722	0.01282	221.1	0	0	1	0	1	0	0	-3.3604	3.4965	3.3633	-4.8220;
	11	93	0.018394	0.128141	0.02095	221.1	0	0	1	0	1	0	0	3.1329	-3.3373	-3.1303	1.1494;
	11	158	0.008519	0.058199	0.0099	221.1	0	0	1	0	1	0	0	-1.5262	-0.6630	1.5264	-0.3761;
	14	15	0.000637	0.027526	0	300	0	0	1	0	1	0	0	31.2144	-27.7684	-31.2036	28.2345;
	14	121	0.007013	0.050098	0.09134	402.36	0	0	1	0	1	0	0	-38.4962	30.2603	38.6802	-38.2285;
	14	149	0.009133	0.065244	0.11895	402.36	0	0	1	0	1	0	0	7.2818	-2.4919	-7.2759	-9.6912;
	15	16	0.000553	0.0032	0	100	0	0	1	0	1	0	0	27.8404	7.9610	-27.8359	-7.9354;
	17	18	0.000503	0.003926	0	100	0	0	1	0	1	0	0	0.4415	0.1244	-0.4415	-0.1244;
	17	19	0.000514	0.003079	0	100	0	0	1	0	1	0	0	0.4789	0.1368	-0.4789	-0.1368;
	17	20	0.000623	0.003339	0	100	0	0	1	0	1	0	0	0.7027	0.1990	-0.7027	-0.1990;
	17	21	0.00062	0.00394	0	100	0	0	1	0	1	0	0	2.8670	0.8150	-2.8669	-0.8147;
	17	109	0.009789	0.068198	0.01115	221.1	0	0	1	0	1	0	0	-16.4151	7.2784	16.4482	-8.1367;
	17	120	0.010316	0.070473	0.01199	221.1	0	0	1	0	1	0	0	11.9250	-8.5537	-11.9033	7.5215;
	22	23	0.000616	0.003222	0	100	0	0	1	0	1	0	0	0.8769	0.2488	-0.8769	-0.2488;
	22	24	0.000687	0.003067	0	100	0	0	1	0	1	0	0	1.4926	0.4230	-1.4925	-0.4229;
	22	27	0.011379	0.073494	0.01402	221.1	0	0	1	0	1	0	0	0.4860	-1.9446	-0.4858	0.4670;
	22	158	0.012701	0.086769	0.01476	221.1	0	0	1	0	1	0	0	-2.8554	1.2728	2.8569	-2.8162;
	25	26	0.00061	0.003071	0	100	0	0	1	0	1	0	0	0.7878	0.2276	-0.7878	-0.2276;
	25	64	0.007643	0.053244	0.0087	221.1	0	0	1	0	1	0	0	-18.4528	16.7985	18.5013	-17.3267;
	25	199	0.009909	0.064003	0.01221	221.1	0	0	1	0	1	0	0	17.6649	-17.0261	-17.6075	16.1608;
	27	28	0.000587	0.003964	0	100	0	0	1	0	1	0	0	1.4490	0.4168	-1.4490	-0.4167;
	27	93	0.025172	0.175362	0.02867	221.1	0	0	1	0	1	0	0	1.1724	-1.5918	-1.1721	-1.4319;
	27	158	0.020429	0.131945	0.02517	221.1	0	0	1	0	1	0	0	-2.1357	0.7081	2.1373	-3.3485;
	29	30	0.000694	0.003131	0	100	0	0	1	0	1	0	0	35.7975	10.2450	-35.7873	-10.1990;
	29	124	0.005561	0.038742	0.00633	221.1	0	0	1	0	1	0	0	-23.2232	-6.2643	23.2571	5.9017;
	29	140	0.007895	0.055004	0.00899	221.1	0	0	1	0	1	0	0	-12.5743	-3.9808	12.5886	3.2305;
	31	32	0.000667	0.003884	0	100	0	0	1	0	1	0	0	0.3546	0.1043	-0.3546	-0.1043;
	31	33	0.000528	0.003639	0	100	0	0	1	0	1	0	0	4.4775	1.2801	-4.4773	-1.2792;
	31	177	0.008406	0.05856	0.00957	221.1	0	0	1	0	1	0	0	-8.7408	-8.8067	8.7537	7.9789;
	31	192	0.008088	0.05525	0.0094	221.1	0	0	1	0	1	0	0	3.9088	7.4224	-3.9022	-8.2692;
	34	35	0.000575	0.003674	0	100	0	0	1	0	1	0	0	12.9115	3.6880	-12.9105	-3.6816;
	34	54	0.006268	0.042819	0.00729	221.1	0	0	1	0	1	0	0	-21.0747	-7.5973	21.1048	7.0459;
	34	137	0.006911	0.044639	0.00852	221.1	0	0	1	0	1	0	0	8.1632	3.9093	-8.1575	-4.7511;
	36	37	0.000552	0.003328	0	100	0	0	1	0	1	0	0	2.4820	0.7094	-2.4820	-0.7091;
	36	38	0.00067	0.003511	0	100	0	0	1	0	1	0	0	20.7283	5.9264	-20.7250	-5.9095;
	36	58	0.010889	0.07439	0.01266	221.1	0	0	1	0	1	0	0	1.9663	-11.4513	-1.9527	10.3078;
	36	83	0.009615	0.066986	0.01095	221.1	0	0	1	0	1	0	0	-25.1766	4.8156	25.2423	-5.4176;
	39	40	0.000505	0.003103	0	100	0	0	1	0	1	0	0	1.2687	0.3608	-1.2687	-0.3607;
	39	85	0.008702	0.060625	0.00991	221.1	0	0	1	0	1	0	0	-7.7568	6.9130	7.7668	-7.8326;
	39	159	0.007332	0.05108	0.00835	221.1	0	0	1	0	1	0	0	1.8799	-8.5859	-1.8747	7.7816;
	41	100	0.004595	0.029676	0.00566	221.1	0	0	1	0	1	0	0	-11.1706	-27.3676	11.2084	27.0161;
	41	163	0.003165	0.021623	0.00368	221.1	0	0	1	0	1	0	0	-1.4414	13.3452	1.4470	-13.6898;
	41	180	0.009408	0.060766	0.01159	221.1	0	0	1	0	1	0	0	-10.5523	7.4187	10.5682	-8.5213;
	42	44	0.012256	0.085383	0.01396	221.1	0	0	1	0	1	0	0	-10.3042	7.8862	10.3260	-9.1342;
	42	181	0.008008	0.05579	0.00912	221.1	0	0	1	0	1	0	0	3.6997	-9.7705	-3.6917	8.9013;
	43	84	0.007509	0.051295	0.00873	221.1	0	0	1	0	1	0	0	5.2104	-3.7866	-5.2073	2.9817;
	43	132	0.011052	0.075503	0.01285	221.1	0	0	1	0	1	0	0	-6.4762	3.4293	6.4830	-4.5935;
	44	200	0.014813	0.101195	0.01722	221.1	0	0	1	0	1	0	0	-12.9069	8.4004	12.9444	-9.8486;
	45	46	0.000936	0.049195	0	160	0	0	1	0	1	0	0	17.9215	-3.2581	-17.9183	3.4245;
	45	55	0.002593	0.018527	0.03378	402.36	0	0	1	0	1	0	0	5.5141	13.5401	-5.5072	-16.7948;
	45	102	0.0029	0.020715	0.03777	402.36	0	0	1	0	1	0	0	-11.6211	19.4766	11.6385	-23.0422;
	45	187	0.003474	0.024821	0.04525	402.36	0	0	1	0	1	0	0	-11.8145	-29.7585	11.8463	25.5134;
	46	61	0.006971	0.048561	0.00794	221.1	0	0	1	0	1	0	0	3.3718	6.7109	-3.3674	-7.4588;
	46	122	0.010129	0.065419	0.01248	221.1	0	0	1	0	1	0	0	10.1387	-11.3938	-10.1162	10.3037;
	47	54	0.006678	0.045623	0.00776	221.1	0	0	1	0	1	0	0	7.1539	2.0363	-7.1503	-2.8219;
	47	66	0.007339	0.047401	0.00904	221.1	0	0	1	0	1	0	0	-8.1117	-2.3100	8.1165	1.3944;
	48	49	0.027149	0.532021	0	28.9	0	0	1	0	1	0	0	-1.3594	-0.6298	1.3600	0.6419;
	48	50	0.021719	0.404167	0	28.7	0	0	1	0	1	0	0	-1.3595	-0.6324	1.3600	0.6416;
	48	51	0.027149	0.612711	0	24.3	0	0	1	0	1	0	0	-1.3594	-0.6270	1.3600	0.6409;
	48	52	0.021719	0.379817	0	24.3	0	0	1	0	1	0	0	-1.3595	-0.6318	1.3600	0.6405;
	48	53	0.02121	0.576549	0	35.3	0	0	1	0	1	0	0	-2.7182	-0.9653	2.7200	1.0139;
	48	74	0.007959	0.054369	0.00925	221.1	0	0	1	0	1	0	0	13.8892	2.7072	-13.8728	-3.5054;
	54	66	0.007051	0.045544	0.00869	221.1	0	0	1	0	1	0	0	-15.6087	-4.6966	15.6264	3.9020;
	55	56	0.005152	0.124653	0	160	0	0	1	0	1	0	0	2.8126	0.0092	-2.8122	0.0009;
	55	81	0.005467	0.039054	0.0712	402.36	0	0	1	0	1	0	0	40.8459	-31.0567	-40.7097	25.0241;
	55	102	0.001246	0.008902	0.01623	402.36	0	0	1	0	1	0	0	-38.3924	17.1838	38.4154	-18.6006;
	55	112	0.004166	0.029763	0.05426	402.36	0	0	1	0	1	0	0	0.1632	14.3725	-0.1509	-19.5480;
	55	128	0.003415	0.024395	0.04448	402.36	0	0	1	0	1	0	0	0.0780	16.2860	-0.0661	-20.5183;
	56	103	0.004282	0.02983	0.00488	221.1	0	0	1	0	1	0	0	1.9014	-0.2581	-1.9012	-0.2165;
	57	159	0.00752	0.051369	0.00874	221.1	0	0	1	0	1	0	0	4.6147	5.4341	-4.6106	-6.2917;
	58	95	0.009836	0.063526	0.01212	221.1	0	0	1	0	1	0	0	4.6336	-21.7931	-4.5866	20.8873;
	58	177	0.014049	0.095972	0.01633	221.1	0	0	1	0	1	0	0	-5.6218	10.6440	5.6450	-12.0771;
	59	119	0.011209	0.072397	0.01381	221.1	0	0	1	0	1	0	0	-6.7468	5.4840	6.7565	-6.7382;
	59	139	0.009665	0.062426	0.01191	221.1	0	0	1	0	1	0	0	3.8821	-6.3016	-3.8773	5.1888;
	60	97	0.012274	0.079279	0.01512	221.1	0	0	1	0	1	0	0	23.3284	-9.1003	-23.2502	8.1411;
	60	134	0.009007	0.062749	0.01026	221.1	0	0	1	0	1	0	0	-25.6299	8.4462	25.6987	-8.9531;
	61	103	0.006539	0.045556	0.00745	221.1	0	0	1	0	1	0	0	-10.9198	3.3847	10.9287	-4.0494;
	62	159	0.008634	0.058979	0.01003	221.1	0	0	1	0	1	0	0	-5.6180	0.7446	5.6209	-1.7387;
	62	160	0.007628	0.053144	0.00869	221.1	0	0	1	0	1	0	0	-7.6967	-4.5381	7.7024	3.6974;
	63	66	0.011949	0.083244	0.01361	221.1	0	0	1	0	1	0	0	-15.7875	3.1576	15.8175	-4.3777;
	63	184	0.017963	0.116023	0.02214	221.1	0	0	1	0	1	0	0	10.8248	-4.5693	-10.8028	2.3789;
	64	65	0.00128	0.10157	0	195.5	0	0	1	0	1	0	0	-29.9496	17.9764	29.9654	-16.7223;
	66	67	0.020951	0.144786	0	30	0	0	1	0	1	0	0	-1.4095	-0.5262	1.4100	0.5293;
	66	68	0.00689	0.264997	0	73	0	0	1	0	1	0	0	-8.3753	0.9817	8.3800	-0.8020;
	66	69	0.00441	0.09499	0	70.5	0	0	1	0	1	0	0	-8.3770	0.8086	8.3800	-0.7444;
	66	70	0.00689	0.199449	0	70.5	0	0	1	0	1	0	0	-8.3753	0.9158	8.3800	-0.7808;
	66	71	0.003528	0.081544	0	68	0	0	1	0	1	0	0	-8.3776	0.7942	8.3800	-0.7392;
	66	72	0.003528	0.074599	0	68	0	0	1	0	1	0	0	-8.3776	0.7870	8.3800	-0.7367;
	66	73	0.00689	0.146423	0	65	0	0	1	0	1	0	0	-8.3753	0.8611	8.3800	-0.7621;
	66	158	0.004993	0.032251	0.00615	221.1	0	0	1	0	1	0	0	12.1073	-5.5410	-12.0991	4.9487;
	74	190	0.008894	0.06076	0.01034	221.1	0	0	1	0	1	0	0	2.9252	0.3833	-2.9243	-1.3910;
	75	76	0.038464	0.784328	0	24.3	0	0	1	0	1	0	0	-1.1992	-0.8039	1.2000	0.8210;
	75	77	0.08013	2.192105	0	7.4	0	0	1	0	1	0	0	-0.7194	-0.4644	0.7200	0.4812;
	75	78	0.008544	0.181406	0	65	0	0	1	0	1	0	0	0.0000	0.0000	0.0000	0.0000;
	75	79	0.01068	0.277774	0	62.1	0	0	1	0	1	0	0	0.0000	0.0000	0.0000	0.0000;
	75	108	0.010988	0.070969	0.01354	221.1	0	0	1	0	1	0	0	8.8400	-0.4521	-8.8310	-0.7832;
	75	157	0.013487	0.087112	0.01662	221.1	0	0	1	0	1	0	0	-9.1017	1.0965	9.1139	-2.6065;
	80	100	0.021463	0.149525	0.02444	221.1	0	0	1	0	1	0	0	2.4636	-8.6780	-2.4510	6.1994;
	80	143	0.020594	0.14347	0.02345	221.1	0	0	1	0	1	0	0	-3.3578	8.4243	3.3785	-10.6873;
	81	82	0.00097	0.042371	0	250	0	0	1	0	1	0	0	17.4659	4.2235	-17.4628	-4.0857;
	81	178	0.006598	0.047137	0.08594	402.36	0	0	1	0	1	0	0	23.2438	-29.2477	-23.1664	21.1807;
	82	195	0.003845	0.026265	0.00447	221.1	0	0	1	0	1	0	0	13.0277	2.8194	-13.0207	-3.2132;
	83	146	0.005382	0.036767	0.00626	221.1	0	0	1	0	1	0	0	-11.5727	2.8189	11.5807	-3.3693;
	83	186	0.00792	0.055174	0.00902	221.1	0	0	1	0	1	0	0	-15.8527	1.9799	15.8738	-2.7054;
	84	113	0.006652	0.04544	0.00773	221.1	0	0	1	0	1	0	0	2.9362	-3.6298	-2.9348	2.9058;
	85	120	0.007786	0.050291	0.00959	221.1	0	0	1	0	1	0	0	-10.7705	6.9744	10.7839	-7.8386;
	86	101	0.00512	0.033072	0.00631	221.1	0	0	1	0	1	0	0	-2.0949	-2.0351	2.0953	1.4448;
	86	142	0.003387	0.023141	0.00394	221.1	0	0	1	0	1	0	0	-4.8775	2.0422	4.8785	-2.4049;
	86	193	0.006606	0.042664	0.00814	221.1	0	0	1	0	1	0	0	-7.3511	-2.4519	7.3552	1.7130;
	87	88	0.000832	0.034189	0	350	0	0	1	0	1	0	0	39.2195	-2.5189	-39.2070	3.0345;
	87	149	0.001621	0.011579	0.02111	402.36	0	0	1	0	1	0	0	-39.2195	2.5189	39.2440	-4.5063;
	88	150	0.00557	0.035973	0.00686	221.1	0	0	1	0	1	0	0	-15.3296	-2.1658	15.3425	1.5449;
	88	176	0.003859	0.024922	0.00475	221.1	0	0	1	0	1	0	0	17.4829	3.1997	-17.4710	-3.6089;
	88	194	0.004258	0.029088	0.00495	221.1	0	0	1	0	1	0	0	7.3996	-12.5186	-7.3910	12.0675;
	89	90	0.0601	2.279922	0	8.6	0	0	1	0	1	0	0	-0.9593	-0.5000	0.9600	0.5267;
	89	91	0.024614	0.503424	0	32	0	0	1	0	1	0	0	-1.4993	-0.8098	1.5000	0.8244;
	89	92	0.019539	0.36204	0	35.3	0	0	1	0	1	0	0	0.0000	0.0000	-0.0000	0.0000;
	89	95	0.008734	0.056409	0.01076	221.1	0	0	1	0	1	0	0	-2.4927	-9.8799	2.5009	8.8507;
	89	188	0.00805	0.051996	0.00992	221.1	0	0	1	0	1	0	0	-38.7444	-1.2620	38.8653	1.0472;
	93	94	0.01068	0.280602	0	62.1	0	0	1	0	1	0	0	-5.3971	-0.0900	5.4000	0.1674;
	93	191	0.022088	0.142662	0.02722	221.1	0	0	1	0	1	0	0	7.7965	-0.1686	-7.7834	-2.6101;
	96	122	0.01062	0.073986	0.01209	221.1	0	0	1	0	1	0	0	-16.9276	8.2855	16.9662	-9.2265;
	96	143	0.015858	0.102423	0.01954	221.1	0	0	1	0	1	0	0	19.6262	-7.6127	-19.5585	6.0774;
	96	188	0.010903	0.070421	0.01343	221.1	0	0	1	0	1	0	0	-4.7565	-1.2567	4.7590	-0.0789;
	97	200	0.01318	0.085125	0.01624	221.1	0	0	1	0	1	0	0	18.8109	-9.4069	-18.7529	8.1944;
	98	99	0.000643	0.030516	0	250	0	0	1	0	1	0	0	34.8859	6.1481	-34.8774	-5.7452;
	98	123	0.0047	0.033574	0.06121	402.36	0	0	1	0	1	0	0	-34.8859	-6.1481	34.9466	0.7461;
	99	142	0.007605	0.052982	0.00866	221.1	0	0	1	0	1	0	0	27.5068	3.6437	-27.4447	-4.0270;
	100	174	0.010698	0.074531	0.01218	221.1	0	0	1	0	1	0	0	-9.4039	14.4104	9.4356	-15.4685;
	100	179	0.007093	0.049413	0.00808	221.1	0	0	1	0	1	0	0	-17.6036	28.0747	17.6786	-28.3986;
	100	184	0.012745	0.08879	0.01451	221.1	0	0	1	0	1	0	0	-4.3404	2.7122	4.3441	-4.2216;
	101	110	0.00196	0.012657	0.00241	221.1	0	0	1	0	1	0	0	-2.8136	-0.0092	2.8138	-0.2164;
	101	117	0.005245	0.035833	0.0061	221.1	0	0	1	0	1	0	0	-9.9526	-5.0927	9.9594	4.5643;
	101	141	0.003144	0.020305	0.00387	221.1	0	0	1	0	1	0	0	-2.3725	-0.0052	2.3726	-0.3574;
	102	103	0.001709	0.054578	0	250	0	0	1	0	1	0	0	14.0626	-2.0126	-14.0590	2.1258;
	102	104	0.0021	0.087749	0	130	0	0	1	0	1	0	0	-26.5252	7.7742	26.5417	-7.0851;
	102	105	0.00097	0.059419	0	260	0	0	1	0	1	0	0	-55.3282	22.5007	55.3638	-20.3220;
	102	128	0.0027	0.019292	0.03517	402.36	0	0	1	0	1	0	0	17.7370	13.3806	-17.7219	-16.6830;
	103	106	0.007749	0.053987	0.00883	221.1	0	0	1	0	1	0	0	5.0316	2.1401	-5.0290	-2.9815;
	106	130	0.006991	0.047761	0.00813	221.1	0	0	1	0	1	0	0	3.5968	2.5713	-3.5953	-3.3489;
	107	113	0.006748	0.046101	0.00784	221.1	0	0	1	0	1	0	0	-21.3553	-4.4381	21.3891	3.9271;
	107	129	0.005168	0.035307	0.00601	221.1	0	0	1	0	1	0	0	-17.8548	-3.7450	17.8729	3.3007;
	107	192	0.003939	0.025441	0.00485	221.1	0	0	1	0	1	0	0	2.6684	-2.2316	-2.6679	1.7770;
	108	198	0.024792	0.160126	0.03055	221.1	0	0	1	0	1	0	0	3.1259	-0.8399	-3.1232	-2.0524;
	109	186	0.008774	0.059942	0.0102	221.1	0	0	1	0	1	0	0	-19.6571	7.2225	19.6974	-7.9368;
	110	193	0.003444	0.022243	0.00424	221.1	0	0	1	0	1	0	0	-9.3911	-1.6550	9.3944	1.2774;
	111	163	0.005281	0.034111	0.00651	221.1	0	0	1	0	1	0	0	-5.5116	-1.1867	5.5132	0.5218;
	111	175	0.00795	0.055386	0.00905	221.1	0	0	1	0	1	0	0	0.1827	-0.3298	-0.1827	-0.6082;
	112	113	0.002077	0.058615	0	350	0	0	1	0	1	0	0	48.6578	12.0241	-48.6038	-10.4983;
	112	114	0.06	0.434013	0	20	0	0	1	0	1	0	0	-0.6961	-0.0542	0.6964	0.0564;
	112	115	0.00128	0.062771	0	200	0	0	1	0	1	0	0	-47.4968	14.4447	47.5295	-12.8417;
	112	128	0.001295	0.009255	0.01687	402.36	0	0	1	0	1	0	0	-0.3140	-6.8666	0.3145	5.2412;
	113	192	0.005418	0.034995	0.00668	221.1	0	0	1	0	1	0	0	30.1495	3.6654	-30.0967	-3.9572;
	116	117	0.000517	0.034943	0	300	0	0	1	0	1	0	0	59.3349	5.2950	-59.3156	-3.9879;
	116	133	0.00389	0.027793	0.05067	402.36	0	0	1	0	1	0	0	-59.3349	-5.2950	59.4796	1.5056;
	117	132	0.011912	0.082984	0.01357	221.1	0	0	1	0	1	0	0	22.8771	-0.7613	-22.8111	-0.0578;
	117	162	0.01617	0.104442	0.01993	221.1	0	0	1	0	1	0	0	5.8389	-5.6959	-5.8292	3.8675;
	118	131	0.00718	0.046377	0.00885	221.1	0	0	1	0	1	0	0	18.6435	4.8537	-18.6150	-5.5062;
	118	134	0.011598	0.0808	0.01321	221.1	0	0	1	0	1	0	0	-21.1590	-3.3608	21.2147	2.4892;
	118	198	0.009487	0.064809	0.01103	221.1	0	0	1	0	1	0	0	0.1293	-2.1713	-0.1291	1.1258;
	121	122	0.000786	0.063023	0	200	0	0	1	0	1	0	0	17.5870	4.3427	-17.5845	-4.1363;
	121	178	0.008903	0.063604	0.11596	402.36	0	0	1	0	1	0	0	37.9893	-19.7076	-37.8439	9.0624;
	121	187	0.001063	0.007593	0.01384	402.36	0	0	1	0	1	0	0	-94.2566	53.5934	94.3821	-54.0789;
	123	124	0.000329	0.017481	0	400	0	0	1	0	1	0	0	116.0522	17.2475	-116.0048	-14.7308;
	123	125	0.00448	0.104562	0	170	0	0	1	0	1	0	0	-38.9450	-9.1637	39.0200	10.9141;
	123	126	0.00148	0.066043	0	170	0	0	1	0	1	0	0	-38.9950	-9.6851	39.0200	10.8002;
	123	127	0.001	0.031691	0	170	0	0	1	0	1	0	0	-39.0031	-9.7915	39.0200	10.3275;
	123	133	0.001459	0.010423	0.019	402.36	0	0	1	0	1	0	0	-30.8939	8.1858	30.9097	-9.8885;
	123	156	0.001117	0.007981	0.01455	402.36	0	0	1	0	1	0	0	-3.1618	2.4608	3.1621	-3.8500;
	124	193	0.006577	0.04582	0.00749	221.1	0	0	1	0	1	0	0	32.2446	4.1423	-32.1712	-4.3393;
	128	129	0.000753	0.044453	0	250	0	0	1	0	1	0	0	71.6166	21.1688	-71.5731	-18.6029;
	128	133	0.009554	0.068257	0.12444	402.36	0	0	1	0	1	0	0	-54.1431	10.7913	54.4609	-20.4756;
	130	144	0.022678	0.157988	0.02583	221.1	0	0	1	0	1	0	0	0.5362	2.4798	-0.5329	-4.9411;
	133	134	0.0002	0.013328	0	400	0	0	1	0	1	0	0	101.5965	-11.8318	-101.5746	13.2916;
	133	135	0.00043	0.033512	0	580	0	0	1	0	1	0	0	-133.8368	23.7165	133.9200	-17.2347;
	133	136	0.00043	0.027478	0	580	0	0	1	0	1	0	0	-133.8370	23.0918	133.9200	-17.7855;
	133	156	0.001958	0.013985	0.0255	402.36	0	0	1	0	1	0	0	21.2270	-6.1179	-21.2173	3.7510;
	134	140	0.010445	0.071357	0.01214	221.1	0	0	1	0	1	0	0	17.5967	3.7348	-17.5609	-4.6477;
	134	186	0.014463	0.093412	0.01782	221.1	0	0	1	0	1	0	0	37.0646	-10.5626	-36.8430	10.2787;
	138	139	0.026477	0.184455	0.03015	221.1	0	0	1	0	1	0	0	0.2720	3.4825	-0.2653	-6.3698;
	138	195	0.008728	0.05637	0.01075	221.1	0	0	1	0	1	0	0	-1.4916	-3.8326	1.4928	2.7822;
	141	148	0.01019	0.065817	0.01256	221.1	0	0	1	0	1	0	0	11.7485	2.2225	-11.7327	-3.2976;
	141	193	0.002896	0.018702	0.00357	221.1	0	0	1	0	1	0	0	-10.4972	-2.0216	10.5007	1.7082;
	144	162	0.006962	0.048504	0.00793	221.1	0	0	1	0	1	0	0	-4.9482	3.3786	4.9510	-4.1158;
	145	176	0.008799	0.060111	0.01023	221.1	0	0	1	0	1	0	0	-6.0425	-1.3744	6.0457	0.3514;
	145	185	0.010839	0.075509	0.01234	221.1	0	0	1	0	1	0	0	-4.4993	-1.6307	4.5016	0.3858;
	146	147	0.0025	0.10181	0	130.6	0	0	1	0	1	0	0	-33.8861	6.0446	33.9168	-4.7959;
	146	177	0.011064	0.07708	0.0126	221.1	0	0	1	0	1	0	0	22.3054	-2.6753	-22.2479	1.8596;
	149	150	0.000412	0.020251	0	400	0	0	1	0	1	0	0	62.2583	-10.3325	-62.2423	11.1196;
	149	151	0.02267	0.625521	0	20	0	0	1	0	1	0	0	-1.6193	-0.6005	1.6200	0.6187;
	149	152	0.00249	0.141687	0	100	0	0	1	0	1	0	0	-23.1560	6.3402	23.1700	-5.5432;
	149	153	0.00549	0.184603	0	100	0	0	1	0	1	0	0	-23.1390	6.6019	23.1700	-5.5589;
	149	154	0.00249	0.10294	0	100	0	0	1	0	1	0	0	-23.1561	6.1037	23.1700	-5.5276;
	149	155	0.00249	0.099835	0	100	0	0	1	0	1	0	0	-23.1561	6.0846	23.1700	-5.5261;
	150	185	0.013458	0.091934	0.01564	221.1	0	0	1	0	1	0	0	11.0027	0.7370	-10.9865	-2.2309;
	150	194	0.003138	0.021435	0.00365	221.1	0	0	1	0	1	0	0	35.8971	-13.4015	-35.8524	13.3304;
	156	157	0.000592	0.045654	0	300	0	0	1	0	1	0	0	18.0552	0.0990	-18.0532	0.0567;
	160	161	0.00139	0.080288	0	180.2	0	0	1	0	1	0	0	0.0000	0.0000	-0.0000	-0.0000;
	160	181	0.004296	0.029345	0.00499	221.1	0	0	1	0	1	0	0	-7.7024	-3.6974	7.7054	3.2102;
	163	164	0.008207	0.11301	0	58.1	0	0	1	0	1	0	0	0.0000	0.0000	0.0000	0.0000;
	163	165	0.0074	0.301657	0	65	0	0	1	0	1	0	0	0.0000	0.0000	-0.0000	0.0000;
	163	166	0.016368	0.382075	0	42	0	0	1	0	1	0	0	0.0000	0.0000	0.0000	0.0000;
	163	167	0.010476	0.196499	0	42	0	0	1	0	1	0	0	-2.8191	-0.9853	2.8200	1.0022;
	163	168	0.018	0.490983	0	40	0	0	1	0	1	0	0	0.0000	0.0000	0.0000	0.0000;
	163	169	0.016368	0.396417	0	40	0	0	1	0	1	0	0	-0.0000	0.0000	-0.0000	0.0000;
	163	170	0.016368	0.374902	0	35.6	0	0	1	0	1	0	0	-2.8186	-0.9410	2.8200	0.9729;
	163	179	0.00579	0.039557	0.00673	221.1	0	0	1	0	1	0	0	-28.9941	7.2097	29.0442	-7.5650;
	171	190	0.009866	0.0674	0.01147	221.1	0	0	1	0	1	0	0	6.8786	0.3068	-6.8737	-1.3985;
	171	195	0.011644	0.081116	0.01326	221.1	0	0	1	0	1	0	0	-11.5121	-1.6256	11.5279	0.4311;
	172	180	0.015296	0.106558	0.01742	221.1	0	0	1	0	1	0	0	1.2637	-3.2829	-1.2626	1.4902;
	172	199	0.024005	0.155042	0.02958	221.1	0	0	1	0	1	0	0	-4.5142	2.3585	4.5225	-5.3407;
	173	174	0.015373	0.099293	0.01894	221.1	0	0	1	0	1	0	0	-9.4978	-1.0616	9.5112	-0.8196;
	173	175	0.008572	0.055363	0.01056	221.1	0	0	1	0	1	0	0	4.2354	-0.4368	-4.2339	-0.6485;
	174	188	0.017952	0.12264	0.02087	221.1	0	0	1	0	1	0	0	-20.6204	15.8108	20.7431	-17.1099;
	178	179	0.000495	0.036157	0	250	0	0	1	0	1	0	0	61.0102	-30.2430	-60.9876	31.8974;
	180	191	0.026393	0.183866	0.03006	221.1	0	0	1	0	1	0	0	-3.4101	-4.4623	3.4152	1.3655;
	180	199	0.012185	0.078698	0.01501	221.1	0	0	1	0	1	0	0	-10.5719	10.1582	10.5991	-11.5263;
	181	182	0.01099	0.297746	0	60.3	0	0	1	0	1	0	0	-5.2470	-0.5510	5.2500	0.6324;
	181	183	0.004627	0.114254	0	65	0	0	1	0	1	0	0	-7.9771	0.0328	7.9800	0.0386;
	181	194	0.004395	0.028384	0.00542	221.1	0	0	1	0	1	0	0	-20.6281	-20.0945	20.6634	19.7667;
	187	188	0.001394	0.044762	0	400	0	0	1	0	1	0	0	64.4283	-14.1849	-64.3674	16.1416;
	187	189	0.0003	0.007815	0	740	0	0	1	0	1	0	0	-170.6567	42.7504	170.7500	-40.3209;
	195	196	0.00285	0.060038	0	87.7	0	0	1	0	1	0	0	0.0000	0.0000	-0.0000	-0.0000;
	195	197	0.00285	0.191484	0	87.7	0	0	1	0	1	0	0	0.0000	0.0000	-0.0000	-0.0000;
];

%% generator cost data
%	2	startup	shutdown	n	c(n-1)	...	c0
%	Using quadratic cost curves only
mpc.gencost = [
	2	0	0	3	0.002	19	236.12;
	2	0	0	3	0.002	19	236.12;
	2	0	0	3	0.002	19	236.12;
	2	0	0	3	0.002	19	236.12;
	2	0	0	3	0.002	19	236.24;
	2	0	0	3	0	0	0;
	2	0	0	3	0.002	19	236.13;
	2	0	0	3	0.002	19	236.74;
	2	0	0	3	0.002	19	236.74;
	2	0	0	3	0.002	19	236.74;
	2	0	0	3	0.002	19	236.74;
	2	0	0	3	0.002	19	236.74;
	2	0	0	3	0.002	19	236.74;
	2	0	0	3	0.002	23.157	606;
	2	0	0	3	0.002	23.146	603.6;
	2	0	0	3	0.002	23.252	627;
	2	0	0	3	0.002	23.252	627;
	2	0	0	3	0.002	23.152	604.8;
	2	0	0	3	0.002	23.164	607.5;
	2	0	0	3	0.002	23.173	609.45;
	2	0	0	3	0.002	19	236.48;
	2	0	0	3	0	0	0;
	2	0	0	3	0	0	0;
	2	0	0	3	0	0	0;
	2	0	0	3	0	0	0;
	2	0	0	3	0.002	19	610.14;
	2	0	0	3	0.002	19	610.14;
	2	0	0	3	0.002	19	610.14;
	2	0	0	3	0.002	19	1261.33;
	2	0	0	3	0.002	19	1261.33;
	2	0	0	3	0	0	0;
	2	0	0	3	0.002	19	236.14;
	2	0	0	3	0.002	19	253.01;
	2	0	0	3	0.002	19	253.01;
	2	0	0	3	0.002	19	253.01;
	2	0	0	3	0.002	19	253.01;
	2	0	0	3	0.002	24.07	807.9;
	2	0	0	3	0.002	23.211	618;
	2	0	0	3	0.002	23.306	639;
	2	0	0	3	0.002	23.194	614.1;
	2	0	0	3	0.002	23.194	614.1;
	2	0	0	3	0.002	23.194	614.1;
	2	0	0	3	0.002	23.194	614.1;
	2	0	0	3	0.002	23.194	614.1;
	2	0	0	3	0.002	19	236.47;
	2	0	0	3	0.002	19	236.71;
	2	0	0	3	0	6.71	1272.13;
	2	0	0	3	0.002	23.588	701.25;
	2	0	0	3	0.002	23.588	701.25;
];

%% generator fuel type
mpc.genfuel = {
	"coal";
	"coal";
	"coal";
	"coal";
	"coal";
	"wind";
	"coal";
	"coal";
	"coal";
	"coal";
	"coal";
	"coal";
	"coal";
	"ng";
	"ng";
	"ng";
	"ng";
	"ng";
	"ng";
	"ng";
	"coal";
	"wind";
	"wind";
	"wind";
	"wind";
	"coal";
	"coal";
	"coal";
	"coal";
	"coal";
	"wind";
	"coal";
	"coal";
	"coal";
	"coal";
	"coal";
	"ng";
	"ng";
	"ng";
	"ng";
	"ng";
	"ng";
	"ng";
	"ng";
	"coal";
	"coal";
	"nuclear";
	"ng";
	"ng";

};

%% summary data
mpc.summary_stats = [
%	Nbus	Ngen	NgenON	Nline	NlineON	Nload	GenPCap	GenTotalP	GenTotalQ	GenPCapON	LoadTotP	LoadTotalQ	LoadShedP	LoadShedQ
	200	49	38	245	245	108	3379.59	932.463533	-121.537374	2997.49	927.260773	264.256458	0	0
];

%% solve time
mpc.solve_time = 0;
